test/TEST190523/v_h19.csv
Bus, BasekV, Node1, Magnitude1, Angle1, pu1, Node2, Magnitude2, Angle2, pu2, Node3, Magnitude3, Angle3, pu3
"SOURCEBUS", 69, 1,    41800.6,   -0.3,    1.0493, 2,    41777.3, -120.4,    1.0487, 3,    41743.3,  119.6,    1.0478
"BUSMVMAI1", 12.8, 1,    7743.78,  -31.1,    1.0479, 2,    7746.44, -151.3,    1.0482, 3,    7722.99,   88.5,     1.045
"BUSMVMAI136", 12.505, 1,    7743.74,  -31.1,    1.0725, 2,    7746.32, -151.3,    1.0729, 3,    7722.89,   88.5,    1.0697
"BUSMVMAI3", 12.505, 1,    7713.83,  -31.8,    1.0684, 2,    7653.54, -152.0,      1.06, 3,    7645.16,   87.0,    1.0589
"BUSMVMAI2", 12.505, 1,    7713.75,  -31.8,    1.0684, 2,    7653.29, -152.1,      1.06, 3,    7644.95,   87.0,    1.0589
"BUSMVMAI4", 12.505, 1,    7712.92,  -31.9,    1.0683, 2,    7650.68, -152.1,    1.0597, 3,    7642.83,   87.0,    1.0586
"BUSMVMAI46", 12.505, 1,    7713.86,  -31.8,    1.0684, 2,    7653.65, -152.0,    1.0601, 3,    7645.25,   87.0,    1.0589
"BUSMVMAI5", 12.505, 1,     7711.9,  -31.9,    1.0681, 2,    7648.02, -152.1,    1.0593, 3,    7640.61,   87.0,    1.0583
"BUSMVMAI862", 12.505, 1,    7712.92,  -31.9,    1.0683, 0, 0, 0, 0, 0, 0, 0, 0
"BUSMVMAI6", 12.505, 1,     7711.7,  -31.9,    1.0681, 2,    7647.53, -152.1,    1.0592, 3,    7640.21,   86.9,    1.0582
"BUSMVMAI859", 12.505, 3,    7640.57,   87.0,    1.0583, 0, 0, 0, 0, 0, 0, 0, 0
"BUSMVMAI860", 12.505, 3,    7640.61,   87.0,    1.0583, 0, 0, 0, 0, 0, 0, 0, 0
"BUSMVMAI7", 12.505, 1,    7710.48,  -31.9,    1.0679, 2,    7645.42, -152.1,    1.0589, 3,    7638.18,   86.9,    1.0579
"BUSMVMAI8", 12.505, 1,    7710.51,  -31.9,    1.0679, 2,       7642, -152.1,    1.0584, 3,     7636.9,   86.9,    1.0577
"BUSMVMAI9", 12.505, 1,    7710.48,  -31.9,    1.0679, 2,    7645.42, -152.1,    1.0589, 3,    7638.18,   86.9,    1.0579
"BUSMVMAI10", 12.505, 1,    7709.73,  -31.9,    1.0678, 2,    7645.46, -152.1,    1.0589, 3,    7637.59,   86.9,    1.0578
"BUSMVMAI56", 12.505, 1,    7710.11,  -31.9,    1.0679, 2,    7645.44, -152.1,    1.0589, 3,    7637.89,   86.9,    1.0579
"BUSMVMAI861", 12.505, 3,    7640.47,   87.0,    1.0582, 0, 0, 0, 0, 0, 0, 0, 0
"BUSMVMAI12", 12.505, 1,    7710.54,  -31.9,    1.0679, 2,    7639.21, -152.1,    1.0581, 3,    7635.87,   86.9,    1.0576
"BUSMVMAI51", 12.505, 1,    7710.51,  -31.9,    1.0679, 2,       7642, -152.1,    1.0584, 3,     7636.9,   86.9,    1.0577
"BUSMVMAI2171", 12.505, 1,    7710.51,  -31.9,    1.0679, 0, 0, 0, 0, 0, 0, 0, 0
"BUSMVMAI863", 12.505, 3,     7640.4,   87.0,    1.0582, 0, 0, 0, 0, 0, 0, 0, 0
"BUSMVMAI2165", 12.505, 3,    7638.18,   86.9,    1.0579, 0, 0, 0, 0, 0, 0, 0, 0
"BUSMVMAI694", 12.505, 1,    7710.48,  -31.9,    1.0679, 2,    7645.42, -152.1,    1.0589, 3,    7638.18,   86.9,    1.0579
"BUSMVMAI122", 12.505, 1,    7709.69,  -31.9,    1.0678, 2,    7645.46, -152.1,    1.0589, 3,    7637.56,   86.9,    1.0578
"BUSMVMAI11", 12.505, 1,    7710.53,  -31.9,    1.0679, 2,     7639.2, -152.1,    1.0581, 3,    7635.88,   86.9,    1.0576
"BUSMVMAI13", 12.505, 1,    7710.53,  -31.9,    1.0679, 2,    7639.17, -152.1,    1.0581, 3,    7635.88,   86.9,    1.0576
"BUSMVMAI18", 12.505, 1,    7710.56,  -31.9,    1.0679, 2,    7638.19, -152.2,    1.0579, 3,    7635.46,   86.8,    1.0575
"BUSMVMAI14", 12.505, 1,    7710.52,  -31.9,    1.0679, 2,     7639.1, -152.1,     1.058, 3,     7635.9,   86.9,    1.0576
"BUSMVMAI15", 12.505, 1,     7710.5,  -31.9,    1.0679, 2,    7639.03, -152.1,     1.058, 3,    7635.93,   86.9,    1.0576
"BUSMVMAI16", 12.505, 1,    7710.51,  -31.9,    1.0679, 2,    7639.03, -152.1,     1.058, 3,    7635.92,   86.9,    1.0576
"BUSMVMAI2166", 12.505, 2,    7639.02, -152.1,     1.058, 0, 0, 0, 0, 0, 0, 0, 0
"BUSMVMAI2172", 12.505, 1,    7712.91,  -31.9,    1.0683, 0, 0, 0, 0, 0, 0, 0, 0
"BUSMVMAI864", 12.505, 3,    7640.34,   87.0,    1.0582, 0, 0, 0, 0, 0, 0, 0, 0
"BUSMVMAI865", 12.505, 3,    7640.24,   87.0,    1.0582, 0, 0, 0, 0, 0, 0, 0, 0
"BUSMVMAI17", 12.505, 1,    7710.51,  -31.9,    1.0679, 2,    7639.03, -152.1,     1.058, 3,    7635.92,   86.9,    1.0576
"BUSMVMAI695", 12.505, 1,    7710.51,  -31.9,    1.0679, 2,    7639.03, -152.1,     1.058, 3,    7635.91,   86.9,    1.0576
"BUSMVMAI866", 12.505, 3,    7640.24,   87.0,    1.0582, 0, 0, 0, 0, 0, 0, 0, 0
"BUSMVMAI2176", 12.505, 3,    7640.24,   87.0,    1.0582, 0, 0, 0, 0, 0, 0, 0, 0
"BUSMVMAI2177", 12.505, 3,    7640.23,   87.0,    1.0582, 0, 0, 0, 0, 0, 0, 0, 0
"BUSMVMAI2178", 12.505, 3,    7640.19,   87.0,    1.0582, 0, 0, 0, 0, 0, 0, 0, 0
"BUSMVMAI19", 12.505, 1,    7710.61,  -31.9,     1.068, 2,    7636.34, -152.2,    1.0577, 3,    7634.75,   86.8,    1.0574
"BUSMVMAI20", 12.505, 1,    7710.69,  -31.9,     1.068, 2,    7633.74, -152.2,    1.0573, 3,    7633.73,   86.8,    1.0573
"BUSMVMAI53", 12.505, 1,    7710.61,  -31.9,     1.068, 2,    7636.34, -152.2,    1.0577, 3,    7634.75,   86.8,    1.0574
"BUSMVMAI21", 12.505, 1,    7710.77,  -31.9,     1.068, 2,       7631, -152.2,    1.0569, 3,    7632.68,   86.8,    1.0572
"BUSMVMAI22", 12.505, 1,    7710.86,  -31.9,     1.068, 2,     7627.8, -152.2,    1.0565, 3,    7631.45,   86.7,     1.057
"BUSMVMAI23", 12.505, 1,    7710.77,  -31.9,     1.068, 2,       7631, -152.2,    1.0569, 3,    7632.67,   86.8,    1.0572
"BUSMVMAI25", 12.505, 1,    7710.95,  -31.9,     1.068, 2,    7624.49, -152.2,     1.056, 3,     7630.2,   86.7,    1.0568
"BUSMVMAI52", 12.505, 1,    7710.86,  -31.9,     1.068, 2,     7627.8, -152.2,    1.0565, 3,    7631.45,   86.7,     1.057
"BUSMVMAI54", 12.505, 1,    7710.86,  -31.9,     1.068, 2,     7627.8, -152.2,    1.0565, 3,    7631.45,   86.7,     1.057
"BUSMVMAI55", 12.505, 1,    7710.86,  -31.9,     1.068, 2,     7627.8, -152.2,    1.0565, 3,    7631.45,   86.7,     1.057
"BUSMVMAI696", 12.505, 1,    7710.77,  -31.9,     1.068, 2,    7631.01, -152.2,    1.0569, 3,    7632.67,   86.8,    1.0572
"BUSMVMAI24", 12.505, 1,    7710.96,  -31.9,     1.068, 2,    7624.17, -152.2,     1.056, 3,    7630.08,   86.7,    1.0568
"BUSMVMAI26", 12.505, 1,    7711.04,  -31.9,     1.068, 2,    7620.87, -152.3,    1.0555, 3,    7628.84,   86.6,    1.0566
"BUSMVMAI49", 12.505, 1,    7710.95,  -31.9,     1.068, 2,    7624.49, -152.2,     1.056, 3,     7630.2,   86.7,    1.0568
"BUSMVMAI50", 12.505, 1,    7710.95,  -31.9,     1.068, 2,    7624.49, -152.2,     1.056, 3,    7630.19,   86.7,    1.0568
"BUSMVMAI27", 12.505, 1,    7711.02,  -31.9,     1.068, 2,    7620.89, -152.3,    1.0555, 3,    7628.83,   86.6,    1.0566
"BUSMVMAI28", 12.505, 1,    7711.12,  -31.9,     1.068, 2,    7618.34, -152.3,    1.0552, 3,     7627.9,   86.6,    1.0565
"BUSMVMAI29", 12.505, 1,       7711,  -31.9,     1.068, 2,     7620.9, -152.3,    1.0555, 3,    7628.82,   86.6,    1.0566
"BUSMVMAI31", 12.505, 1,    7711.21,  -31.9,     1.068, 2,     7615.4, -152.3,    1.0548, 3,    7626.81,   86.6,    1.0563
"BUSMVMAI30", 12.505, 1,    7710.98,  -31.9,     1.068, 2,    7620.91, -152.3,    1.0555, 3,     7628.8,   86.6,    1.0566
"BUSMVMAI34", 12.505, 1,    7710.95,  -31.9,     1.068, 2,    7620.93, -152.3,    1.0555, 3,    7628.79,   86.6,    1.0566
"BUSMVMAI867", 12.505, 1,    7711.15,  -31.9,     1.068, 0, 0, 0, 0, 0, 0, 0, 0
"BUSMVMAI43", 12.505, 1,    7711.22,  -31.9,     1.068, 2,    7615.33, -152.3,    1.0548, 3,    7626.79,   86.6,    1.0563
"BUSMVMAI871", 12.505, 2,     7615.4, -152.3,    1.0548, 0, 0, 0, 0, 0, 0, 0, 0
"BUSMVMAI33", 12.505, 1,    7711.25,  -31.9,     1.068, 2,    7614.49, -152.3,    1.0546, 3,    7626.49,   86.6,    1.0563
"BUSMVMAI32", 12.505, 1,    7711.36,  -31.9,    1.0681, 2,    7611.97, -152.3,    1.0543, 3,    7625.59,   86.5,    1.0562
"BUSMVMAI37", 12.505, 1,    7711.47,  -31.9,    1.0681, 2,    7608.52, -152.3,    1.0538, 3,    7624.41,   86.5,     1.056
"BUSMVMAI44", 12.505, 1,    7711.22,  -31.9,     1.068, 2,    7615.27, -152.3,    1.0547, 3,    7626.76,   86.6,    1.0563
"BUSMVMAI35", 12.505, 1,    7710.95,  -31.9,     1.068, 2,    7620.93, -152.3,    1.0555, 3,    7628.79,   86.6,    1.0566
"BUSMVMAI36", 12.505, 1,    7710.95,  -31.9,     1.068, 2,    7620.93, -152.3,    1.0555, 3,    7628.78,   86.6,    1.0566
"BUSMVMAI869", 12.505, 1,    7711.15,  -31.9,     1.068, 0, 0, 0, 0, 0, 0, 0, 0
"BUSMVMAI38", 12.505, 1,    7711.56,  -32.0,    1.0681, 2,     7605.8, -152.3,    1.0534, 3,    7623.48,   86.5,    1.0559
"BUSMVMAI2181", 12.505, 1,    7711.46,  -31.9,    1.0681, 0, 0, 0, 0, 0, 0, 0, 0
"BUSMVMAI868", 12.505, 1,    7711.05,  -31.9,     1.068, 0, 0, 0, 0, 0, 0, 0, 0
"BUSMVMAI870", 12.505, 1,    7710.94,  -31.9,     1.068, 0, 0, 0, 0, 0, 0, 0, 0
"BUSMVMAI39", 12.505, 1,    7711.59,  -32.0,    1.0681, 2,    7605.78, -152.3,    1.0534, 3,    7623.42,   86.5,    1.0559
"BUSMVMAI40", 12.505, 1,    7711.59,  -32.0,    1.0681, 2,    7603.12, -152.4,    1.0531, 3,    7622.63,   86.4,    1.0558
"BUSMVMAI697", 12.505, 1,    7711.64,  -32.0,    1.0681, 2,     7605.8, -152.3,    1.0534, 3,    7623.21,   86.5,    1.0558
"BUSMVMAI41", 12.505, 1,    7711.63,  -32.0,    1.0681, 2,    7600.05, -152.4,    1.0526, 3,    7621.62,   86.4,    1.0556
"BUSMVMAI42", 12.505, 1,    7711.67,  -32.0,    1.0681, 2,    7600.02, -152.4,    1.0526, 3,    7621.58,   86.4,    1.0556
"BUSMVMAI48", 12.505, 1,    7711.62,  -32.0,    1.0681, 2,     7597.5, -152.4,    1.0523, 3,    7620.82,   86.4,    1.0555
"BUSMVMAI303", 12.505, 1,    7711.63,  -32.0,    1.0681, 2,    7598.77, -152.4,    1.0525, 3,    7621.22,   86.4,    1.0556
"BUSMVMAI45", 12.505, 1,    7711.68,  -32.0,    1.0681, 2,    7600.02, -152.4,    1.0526, 3,    7621.55,   86.4,    1.0556
"BUSMVMAI701", 12.505, 1,    7711.68,  -32.0,    1.0681, 2,    7600.02, -152.4,    1.0526, 3,    7621.52,   86.4,    1.0556
"BUSMVMAI47", 12.505, 1,    7714.23,  -31.8,    1.0685, 2,     7654.8, -152.0,    1.0602, 3,    7646.18,   87.1,     1.059
"BUSMVMAI179", 12.505, 1,    7714.05,  -31.8,    1.0684, 2,    7654.23, -152.0,    1.0601, 3,    7645.71,   87.1,     1.059
"BUSMVMAI160", 12.505, 1,     7715.1,  -31.8,    1.0686, 2,    7657.56, -152.0,    1.0606, 3,    7648.43,   87.1,    1.0593
"BUSMVMAI1103", 12.505, 1,    7711.54,  -32.0,    1.0681, 0, 0, 0, 0, 0, 0, 0, 0
"BUSMVMAI259", 12.505, 1,    7711.68,  -32.0,    1.0681, 2,     7596.2, -152.4,    1.0521, 3,    7620.47,   86.3,    1.0555
"BUSMVMAI304", 12.505, 1,    7711.62,  -32.0,    1.0681, 2,     7597.5, -152.4,    1.0523, 3,    7620.82,   86.4,    1.0555
"BUSMVMAI702", 12.505, 1,    7710.95,  -31.9,     1.068, 2,    7624.49, -152.2,     1.056, 3,    7630.19,   86.7,    1.0568
"BUSMVMAI58", 12.505, 1,    7709.21,  -31.9,    1.0678, 2,    7645.48, -152.1,    1.0589, 3,    7637.19,   86.9,    1.0578
"BUSMVMAI57", 12.505, 1,    7707.44,  -31.9,    1.0675, 2,    7645.57, -152.1,    1.0589, 3,     7635.8,   86.9,    1.0576
"BUSMVMAI60", 12.505, 1,     7706.7,  -31.9,    1.0674, 2,    7645.62, -152.1,    1.0589, 3,    7635.23,   86.9,    1.0575
"BUSMVMAI703", 12.505, 1,    7707.44,  -31.9,    1.0675, 2,    7645.58, -152.1,    1.0589, 3,    7635.78,   86.9,    1.0576
"BUSMVMAI123", 12.505, 1,    7709.65,  -31.9,    1.0678, 2,    7645.46, -152.1,    1.0589, 3,    7637.53,   86.9,    1.0578
"BUSMVMAI59", 12.505, 1,    7705.64,  -31.9,    1.0673, 2,    7645.72, -152.1,     1.059, 3,    7634.61,   86.9,    1.0574
"BUSMVMAI61", 12.505, 1,    7703.88,  -32.0,     1.067, 2,    7645.89, -152.1,     1.059, 3,    7633.58,   86.9,    1.0573
"BUSMVMAI63", 12.505, 1,    7706.74,  -31.9,    1.0674, 2,    7645.58, -152.1,    1.0589, 3,    7635.15,   86.9,    1.0575
"BUSMVMAI874", 12.505, 3,    7635.23,   86.9,    1.0575, 0, 0, 0, 0, 0, 0, 0, 0
"BUSMVMAI62", 12.505, 1,    7702.16,  -32.0,    1.0668, 2,    7645.97, -152.1,     1.059, 3,    7632.53,   86.9,    1.0571
"BUSMVMAI64", 12.505, 1,    7700.27,  -32.0,    1.0665, 2,    7646.15, -152.1,     1.059, 3,    7631.74,   86.9,     1.057
"BUSMVMAI942", 12.505, 3,    7632.53,   86.9,    1.0571, 0, 0, 0, 0, 0, 0, 0, 0
"BUSMVMAI873", 12.505, 3,    7632.52,   86.9,    1.0571, 0, 0, 0, 0, 0, 0, 0, 0
"BUSMVMAI872", 12.505, 3,    7632.12,   86.9,    1.0571, 0, 0, 0, 0, 0, 0, 0, 0
"BUSMVMAI880", 12.505, 3,    7632.11,   86.9,    1.0571, 0, 0, 0, 0, 0, 0, 0, 0
"BUSMVMAI945", 12.505, 3,    7635.14,   86.9,    1.0575, 0, 0, 0, 0, 0, 0, 0, 0
"BUSMVMAI65", 12.505, 1,    7698.27,  -32.0,    1.0662, 2,    7646.28, -152.1,     1.059, 3,    7630.89,   86.9,    1.0569
"BUSMVMAI66", 12.505, 1,    7696.25,  -32.0,     1.066, 2,     7646.4, -152.1,    1.0591, 3,    7630.03,   86.9,    1.0568
"BUSMVMAI67", 12.505, 1,    7694.06,  -32.0,    1.0657, 2,    7646.54, -152.1,    1.0591, 3,     7629.1,   86.9,    1.0567
"BUSMVMAI878", 12.505, 1,    7693.97,  -32.0,    1.0656, 0, 0, 0, 0, 0, 0, 0, 0
"BUSMVMAI68", 12.505, 1,    7692.44,  -32.0,    1.0654, 2,     7646.6, -152.1,    1.0591, 3,    7628.41,   86.9,    1.0566
"BUSMVMAI706", 12.505, 1,    7694.07,  -32.0,    1.0657, 2,    7646.54, -152.1,    1.0591, 3,    7629.09,   86.9,    1.0567
"BUSMVMAI876", 12.505, 3,    7635.12,   86.9,    1.0575, 0, 0, 0, 0, 0, 0, 0, 0
"BUSMVMAI875", 12.505, 3,    7634.83,   86.9,    1.0575, 0, 0, 0, 0, 0, 0, 0, 0
"BUSMVMAI877", 12.505, 3,    7634.73,   86.9,    1.0574, 0, 0, 0, 0, 0, 0, 0, 0
"BUSMVMAI883", 12.505, 3,     7634.5,   86.9,    1.0574, 0, 0, 0, 0, 0, 0, 0, 0
"BUSMVMAI884", 12.505, 3,    7634.72,   86.9,    1.0574, 0, 0, 0, 0, 0, 0, 0, 0
"BUSMVMAI886", 12.505, 3,    7634.72,   86.9,    1.0574, 0, 0, 0, 0, 0, 0, 0, 0
"BUSMVMAI885", 12.505, 1,    7693.83,  -32.0,    1.0656, 0, 0, 0, 0, 0, 0, 0, 0
"BUSMVMAI879", 12.505, 3,    7631.55,   86.9,     1.057, 0, 0, 0, 0, 0, 0, 0, 0
"BUSMVMAI881", 12.505, 3,    7631.48,   86.9,     1.057, 0, 0, 0, 0, 0, 0, 0, 0
"BUSMVMAI888", 12.505, 3,    7631.48,   86.9,     1.057, 0, 0, 0, 0, 0, 0, 0, 0
"BUSMVMAI882", 12.505, 3,    7631.42,   86.9,     1.057, 0, 0, 0, 0, 0, 0, 0, 0
"BUSMVMAI944", 12.505, 3,    7631.42,   86.9,     1.057, 0, 0, 0, 0, 0, 0, 0, 0
"BUSMVMAI889", 12.505, 3,     7634.3,   86.9,    1.0574, 0, 0, 0, 0, 0, 0, 0, 0
"BUSMVMAI2183", 12.505, 3,    7634.72,   86.9,    1.0574, 0, 0, 0, 0, 0, 0, 0, 0
"BUSMVMAI2184", 12.505, 3,    7634.72,   86.9,    1.0574, 0, 0, 0, 0, 0, 0, 0, 0
"BUSMVMAI71", 12.505, 1,    7690.87,  -32.1,    1.0652, 2,    7646.62, -152.1,    1.0591, 3,    7627.73,   86.9,    1.0565
"BUSMVMAI2182", 12.505, 1,    7693.83,  -32.0,    1.0656, 0, 0, 0, 0, 0, 0, 0, 0
"BUSMVMAI2185", 12.505, 1,    7693.83,  -32.0,    1.0656, 0, 0, 0, 0, 0, 0, 0, 0
"BUSMVMAI2186", 12.505, 1,    7693.76,  -32.0,    1.0656, 0, 0, 0, 0, 0, 0, 0, 0
"BUSMVMAI887", 12.505, 3,    7634.68,   86.9,    1.0574, 0, 0, 0, 0, 0, 0, 0, 0
"BUSMVMAI892", 12.505, 3,    7634.66,   86.9,    1.0574, 0, 0, 0, 0, 0, 0, 0, 0
"BUSMVMAI897", 12.505, 3,    7631.41,   86.9,     1.057, 0, 0, 0, 0, 0, 0, 0, 0
"BUSMVMAI890", 12.505, 3,    7634.13,   86.9,    1.0574, 0, 0, 0, 0, 0, 0, 0, 0
"BUSMVMAI891", 12.505, 3,    7634.03,   86.9,    1.0573, 0, 0, 0, 0, 0, 0, 0, 0
"BUSMVMAI896", 12.505, 3,    7633.99,   86.9,    1.0573, 0, 0, 0, 0, 0, 0, 0, 0
"BUSMVMAI893", 12.505, 3,    7634.64,   86.9,    1.0574, 0, 0, 0, 0, 0, 0, 0, 0
"BUSMVMAI894", 12.505, 3,    7634.61,   86.9,    1.0574, 0, 0, 0, 0, 0, 0, 0, 0
"BUSMVMAI895", 12.505, 3,    7634.61,   86.9,    1.0574, 0, 0, 0, 0, 0, 0, 0, 0
"BUSMVMAI898", 12.505, 3,    7634.61,   86.9,    1.0574, 0, 0, 0, 0, 0, 0, 0, 0
"BUSMVMAI70", 12.505, 1,    7694.07,  -32.0,    1.0657, 2,    7646.55, -152.1,    1.0591, 3,    7629.05,   86.9,    1.0567
"BUSMVMAI69", 12.505, 1,    7694.07,  -32.0,    1.0657, 2,    7646.55, -152.1,    1.0591, 3,    7629.05,   86.9,    1.0567
"BUSMVMAI708", 12.505, 1,    7694.07,  -32.0,    1.0657, 2,    7646.55, -152.1,    1.0591, 3,    7629.06,   86.9,    1.0567
"BUSMVMAI72", 12.505, 1,     7688.8,  -32.1,    1.0649, 2,    7646.66, -152.1,    1.0591, 3,    7626.85,   86.9,    1.0564
"BUSMVMAI73", 12.505, 1,    7686.83,  -32.1,    1.0647, 2,    7646.72, -152.2,    1.0591, 3,    7626.11,   86.9,    1.0562
"BUSMVMAI134", 12.505, 1,     7688.8,  -32.1,    1.0649, 2,    7646.66, -152.1,    1.0591, 3,    7626.85,   86.9,    1.0564
"BUSMVMAI900", 12.505, 3,    7631.33,   86.9,     1.057, 0, 0, 0, 0, 0, 0, 0, 0
"BUSMVMAI904", 12.505, 3,     7634.6,   86.9,    1.0574, 0, 0, 0, 0, 0, 0, 0, 0
"BUSMVMAI75", 12.505, 1,    7685.86,  -32.1,    1.0645, 2,    7646.82, -152.2,    1.0591, 3,    7625.73,   86.9,    1.0562
"BUSMVMAI718", 12.505, 1,    7686.83,  -32.1,    1.0647, 2,    7646.72, -152.2,    1.0591, 3,    7626.11,   86.9,    1.0562
"BUSMVMAI899", 12.505, 3,    7631.33,   86.9,     1.057, 0, 0, 0, 0, 0, 0, 0, 0
"BUSMVMAI902", 12.505, 3,    7631.29,   86.9,     1.057, 0, 0, 0, 0, 0, 0, 0, 0
"BUSMVMAI901", 12.505, 3,    7631.26,   86.9,     1.057, 0, 0, 0, 0, 0, 0, 0, 0
"BUSMVMAI903", 12.505, 3,     7631.2,   86.9,     1.057, 0, 0, 0, 0, 0, 0, 0, 0
"BUSMVMAI905", 12.505, 3,    7631.14,   86.9,    1.0569, 0, 0, 0, 0, 0, 0, 0, 0
"BUSMVMAI907", 12.505, 3,     7631.2,   86.9,     1.057, 0, 0, 0, 0, 0, 0, 0, 0
"BUSMVMAI906", 12.505, 3,    7631.13,   86.9,    1.0569, 0, 0, 0, 0, 0, 0, 0, 0
"BUSMVMAI946", 12.505, 3,    7631.13,   86.9,    1.0569, 0, 0, 0, 0, 0, 0, 0, 0
"BUSMVMAI74", 12.505, 1,    7685.86,  -32.1,    1.0645, 2,    7646.82, -152.2,    1.0591, 3,    7625.73,   86.9,    1.0562
"BUSMVMAI76", 12.505, 1,    7685.69,  -32.1,    1.0645, 2,    7646.95, -152.2,    1.0591, 3,    7625.65,   86.9,    1.0562
"BUSMVMAI77", 12.505, 1,    7685.31,  -32.1,    1.0644, 2,     7646.8, -152.2,    1.0591, 3,    7625.53,   86.9,    1.0562
"BUSMVMAI79", 12.505, 1,    7685.67,  -32.1,    1.0645, 2,    7646.96, -152.2,    1.0591, 3,    7625.64,   86.9,    1.0562
"BUSMVMAI81", 12.505, 1,    7685.27,  -32.1,    1.0644, 2,    7646.67, -152.2,    1.0591, 3,    7625.59,   86.9,    1.0562
"BUSMVMAI91", 12.505, 1,    7683.89,  -32.1,    1.0643, 2,    7646.86, -152.2,    1.0591, 3,    7624.94,   86.9,    1.0561
"BUSMVMAI78", 12.505, 1,    7685.34,  -32.1,    1.0645, 2,     7647.2, -152.2,    1.0592, 3,    7625.47,   86.9,    1.0562
"BUSMVMAI80", 12.505, 1,    7685.02,  -32.1,    1.0644, 2,    7647.44, -152.2,    1.0592, 3,    7625.29,   86.9,    1.0561
"BUSMVMAI908", 12.505, 1,    7684.83,  -32.1,    1.0644, 0, 0, 0, 0, 0, 0, 0, 0
"BUSMVMAI89", 12.505, 1,    7684.92,  -32.1,    1.0644, 2,    7647.52, -152.2,    1.0592, 3,    7625.21,   86.9,    1.0561
"BUSMVMAI949", 12.505, 3,     7631.2,   86.9,     1.057, 0, 0, 0, 0, 0, 0, 0, 0
"BUSMVMAI82", 12.505, 1,    7685.24,  -32.1,    1.0644, 2,    7646.56, -152.2,    1.0591, 3,    7625.63,   86.9,    1.0562
"BUSMVMAI83", 12.505, 1,    7685.24,  -32.1,    1.0644, 2,    7646.54, -152.2,    1.0591, 3,    7625.62,   86.9,    1.0562
"BUSMVMAI86", 12.505, 1,    7685.25,  -32.1,    1.0644, 2,    7646.51, -152.2,    1.0591, 3,    7625.61,   86.9,    1.0562
"BUSMVMAI85", 12.505, 1,    7686.79,  -32.1,    1.0647, 2,    7646.59, -152.2,    1.0591, 3,    7626.08,   86.9,    1.0562
"BUSMVMAI84", 12.505, 1,    7686.71,  -32.1,    1.0646, 2,    7646.47, -152.2,    1.0591, 3,    7626.08,   86.9,    1.0562
"BUSMVMAI93", 12.505, 1,    7686.67,  -32.1,    1.0646, 2,     7646.4, -152.2,    1.0591, 3,    7626.08,   86.9,    1.0562
"BUSMVMAI2198", 12.505, 2,    7646.47, -152.2,    1.0591, 0, 0, 0, 0, 0, 0, 0, 0
"BUSMVMAI709", 12.505, 1,    7686.83,  -32.1,    1.0647, 2,    7646.71, -152.2,    1.0591, 3,    7626.11,   86.9,    1.0562
"BUSMVMAI88", 12.505, 1,    7685.25,  -32.1,    1.0644, 2,    7646.49, -152.2,    1.0591, 3,     7625.6,   86.9,    1.0562
"BUSMVMAI87", 12.505, 1,    7685.26,  -32.1,    1.0644, 2,    7646.47, -152.2,    1.0591, 3,    7625.59,   86.9,    1.0562
"BUSMVMAI99", 12.505, 1,    7685.26,  -32.1,    1.0644, 2,    7646.45, -152.2,    1.0591, 3,     7625.6,   86.9,    1.0562
"BUSMVMAI722", 12.505, 1,    7685.26,  -32.1,    1.0644, 2,    7646.47, -152.2,    1.0591, 3,    7625.59,   86.9,    1.0562
"BUSMVMAI909", 12.505, 1,    7684.65,  -32.1,    1.0644, 0, 0, 0, 0, 0, 0, 0, 0
"BUSMVMAI90", 12.505, 1,    7684.88,  -32.1,    1.0644, 2,    7647.55, -152.2,    1.0592, 3,    7625.15,   86.9,    1.0561
"BUSMVMAI102", 12.505, 1,    7684.83,  -32.1,    1.0644, 2,     7647.6, -152.2,    1.0592, 3,    7625.08,   86.9,    1.0561
"BUSMVMAI92", 12.505, 1,    7682.66,  -32.1,    1.0641, 2,    7646.92, -152.2,    1.0591, 3,    7624.44,   86.9,     1.056
"BUSMVMAI132", 12.505, 1,    7683.89,  -32.1,    1.0643, 2,    7646.86, -152.2,    1.0591, 3,    7624.94,   86.9,    1.0561
"BUSMVMAI98", 12.505, 1,    7682.66,  -32.1,    1.0641, 2,    7646.92, -152.2,    1.0591, 3,    7624.43,   86.9,     1.056
"BUSMVMAI100", 12.505, 1,    7681.11,  -32.1,    1.0639, 2,    7647.13, -152.2,    1.0592, 3,    7623.71,   86.9,    1.0559
"BUSMVMAI723", 12.505, 1,    7682.66,  -32.1,    1.0641, 2,    7646.91, -152.2,    1.0591, 3,    7624.44,   86.9,     1.056
"BUSMVMAI96", 12.505, 1,    7686.63,  -32.1,    1.0646, 2,    7646.33, -152.2,     1.059, 3,    7626.08,   86.9,    1.0562
"BUSMVMAI916", 12.505, 1,    7686.66,  -32.1,    1.0646, 0, 0, 0, 0, 0, 0, 0, 0
"BUSMVMAI95", 12.505, 1,    7682.66,  -32.1,    1.0641, 2,    7646.81, -152.2,    1.0591, 3,    7624.45,   86.9,     1.056
"BUSMVMAI94", 12.505, 1,    7682.62,  -32.1,    1.0641, 2,    7646.71, -152.2,    1.0591, 3,     7624.5,   86.9,     1.056
"BUSMVMAI112", 12.505, 1,    7682.63,  -32.1,    1.0641, 2,    7646.71, -152.2,    1.0591, 3,    7624.49,   86.9,     1.056
"BUSMVMAI126", 12.505, 1,    7682.67,  -32.1,    1.0641, 2,    7646.81, -152.2,    1.0591, 3,    7624.45,   86.9,     1.056
"BUSMVMAI97", 12.505, 1,    7686.56,  -32.1,    1.0646, 2,    7646.23, -152.2,     1.059, 3,    7626.09,   86.9,    1.0562
"BUSMVMAI711", 12.505, 1,    7686.62,  -32.1,    1.0646, 2,    7646.33, -152.2,     1.059, 3,    7626.08,   86.9,    1.0562
"BUSMVMAI915", 12.505, 1,    7686.56,  -32.1,    1.0646, 0, 0, 0, 0, 0, 0, 0, 0
...
"BUSLVMAI1", 0.20785, 1,    126.947,   87.0,    1.0579, 2,    126.962,  -93.0,     1.058, 0, 0, 0, 0
"BUSLVMAI2", 0.20785, 1,    126.731,   86.7,    1.0561, 2,    126.744,  -93.3,    1.0562, 0, 0, 0, 0
"BUSLVMAI3", 0.20785, 1,    126.909,   86.9,    1.0576, 2,    126.925,  -93.1,    1.0577, 0, 0, 0, 0
"BUSLVMAI4", 0.20785, 1,    127.469,  -32.2,    1.0622, 2,     127.62,  147.8,    1.0635, 0, 0, 0, 0
"BUSLVMAI5", 0.20785, 1,    125.985, -152.5,    1.0499, 2,    126.082,   27.5,    1.0507, 0, 0, 0, 0
"BUSLVMAI6", 0.20785, 1,    126.755,   86.6,    1.0563, 2,     126.77,  -93.4,    1.0564, 0, 0, 0, 0
"BUSLVMAI7", 0.20785, 1,    126.952,   87.0,    1.0579, 2,    126.966,  -93.0,     1.058, 0, 0, 0, 0
"BUSLVMAI8", 0.20785, 1,    125.905,   86.6,    1.0492, 2,    125.923,  -93.4,    1.0494, 0, 0, 0, 0
"BUSLVMAI9", 0.20785, 1,    126.092,   86.2,    1.0508, 2,    126.105,  -93.8,    1.0509, 0, 0, 0, 0
"BUSLVMAI10", 0.20785, 1,    126.214,   86.2,    1.0518, 2,    126.227,  -93.8,    1.0519, 0, 0, 0, 0
"BUSLVMAI11", 0.20785, 1,     126.91, -152.2,    1.0576, 2,    126.923,   27.8,    1.0577, 0, 0, 0, 0
"BUSLVMAI12", 0.20785, 1,     126.76, -152.2,    1.0563, 2,    126.775,   27.8,    1.0565, 0, 0, 0, 0
"BUSLVMAI13", 0.20785, 1,    128.132,  -31.9,    1.0678, 2,    128.148,  148.1,    1.0679, 0, 0, 0, 0
"BUSLVMAI14", 0.20785, 1,    128.082,  -32.0,    1.0674, 2,    128.098,  148.0,    1.0675, 0, 0, 0, 0
"BUSLVMAI15", 0.20785, 1,    128.055,  -31.9,    1.0671, 2,    128.068,  148.1,    1.0672, 0, 0, 0, 0
"BUSLVMAI16", 0.20785, 1,    126.913,   86.9,    1.0576, 2,    126.931,  -93.1,    1.0578, 0, 0, 0, 0
"BUSLVMAI17", 0.20785, 1,    125.251,   86.1,    1.0438, 2,    125.311,  -93.9,    1.0443, 0, 0, 0, 0
"BUSLVMAI18", 0.20785, 1,     126.82,   86.8,    1.0568, 2,    126.835,  -93.2,     1.057, 0, 0, 0, 0
"BUSLVMAI19", 0.20785, 1,    126.814,   86.8,    1.0568, 2,    126.827,  -93.2,    1.0569, 0, 0, 0, 0
"BUSLVMAI20", 0.20785, 1,     125.89, -152.4,    1.0491, 2,    125.932,   27.6,    1.0494, 0, 0, 0, 0
"BUSLVMAI21", 0.20785, 1,    126.948,   87.0,    1.0579, 2,    126.963,  -93.0,     1.058, 0, 0, 0, 0
"BUSLVMAI22", 0.20785, 1,    127.841,  -32.0,    1.0653, 2,    127.961,  148.0,    1.0663, 0, 0, 0, 0
"BUSLVMAI23", 0.20785, 1,     126.88,   86.9,    1.0573, 2,    126.896,  -93.1,    1.0575, 0, 0, 0, 0
"BUSLVMAI24", 0.20785, 1,    126.914,   86.9,    1.0576, 2,     126.93,  -93.1,    1.0577, 0, 0, 0, 0
"BUSLVMAI25", 0.20785, 1,    126.811,   86.9,    1.0568, 2,    126.826,  -93.1,    1.0569, 0, 0, 0, 0
"BUSLVMAI26", 0.20785, 1,    126.824, -152.2,    1.0569, 2,     126.84,   27.8,     1.057, 0, 0, 0, 0
"BUSLVMAI27", 0.20785, 1,    126.929, -152.1,    1.0577, 2,    126.945,   27.9,    1.0579, 0, 0, 0, 0
"BUSLVMAI28", 0.20785, 1,     126.82,   86.8,    1.0568, 2,    126.835,  -93.2,     1.057, 0, 0, 0, 0
"BUSLVMAI29", 0.20785, 1,    126.169,   86.2,    1.0514, 2,    126.185,  -93.9,    1.0515, 0, 0, 0, 0
"BUSLVMAI30", 0.20785, 1,    126.539, -152.3,    1.0545, 2,    126.553,   27.7,    1.0546, 0, 0, 0, 0
"BUSLVMAI31", 0.20785, 1,    126.911,   86.9,    1.0576, 2,    126.927,  -93.1,    1.0577, 0, 0, 0, 0
"BUSLVMAI32", 0.20785, 1,    127.741,  -32.0,    1.0645, 2,    127.754,  148.0,    1.0646, 0, 0, 0, 0
"BUSLVMAI33", 0.20785, 1,    126.786,   86.7,    1.0566, 2,    126.799,  -93.3,    1.0567, 0, 0, 0, 0
"BUSLVMAI34", 0.20785, 1,    124.978,   86.5,    1.0415, 2,    125.168,  -93.5,    1.0431, 0, 0, 0, 0
"BUSLVMAI35", 0.20785, 1,    126.803,   86.9,    1.0567, 2,    126.817,  -93.1,    1.0568, 0, 0, 0, 0
"BUSLVMAI36", 0.20785, 1,    126.801,   86.9,    1.0567, 2,    126.815,  -93.1,    1.0568, 0, 0, 0, 0
"BUSLVMAI37", 0.20785, 1,    126.799,   86.9,    1.0567, 2,    126.815,  -93.1,    1.0568, 0, 0, 0, 0
"BUSLVMAI38", 0.20785, 1,    122.145, -153.3,    1.0179, 2,    122.163,   26.7,     1.018, 0, 0, 0, 0
"BUSLVMAI39", 0.20785, 1,    126.636, -152.4,    1.0553, 2,    126.649,   27.6,    1.0554, 0, 0, 0, 0
"BUSLVMAI40", 0.20785, 1,    126.264,   86.6,    1.0522, 2,    126.313,  -93.4,    1.0526, 0, 0, 0, 0
"BUSLVMAI41", 0.20785, 1,    127.693,  -32.1,    1.0641, 2,    127.709,  147.9,    1.0642, 0, 0, 0, 0
"BUSLVMAI42", 0.20785, 1,    127.758,  -32.1,    1.0647, 2,    127.774,  147.9,    1.0648, 0, 0, 0, 0
"BUSLVMAI43", 0.20785, 1,    127.771,  -32.1,    1.0648, 2,    127.787,  147.9,    1.0649, 0, 0, 0, 0
"BUSLVMAI44", 0.20785, 1,    126.554,   86.9,    1.0546, 2,    126.593,  -93.1,    1.0549, 0, 0, 0, 0
"BUSLVMAI45", 0.20785, 1,    126.574,   86.8,    1.0548, 2,    126.588,  -93.2,    1.0549, 0, 0, 0, 0
"BUSLVMAI46", 0.20785, 1,     126.71,   86.9,    1.0559, 2,    126.726,  -93.1,     1.056, 0, 0, 0, 0
"BUSLVMAI47", 0.20785, 1,    126.806,   86.9,    1.0567, 2,     126.82,  -93.1,    1.0568, 0, 0, 0, 0
"BUSLVMAI48", 0.20785, 1,    126.083,   86.6,    1.0507, 2,     126.13,  -93.4,    1.0511, 0, 0, 0, 0
"BUSLVMAI49", 0.20785, 1,    127.717,  -32.1,    1.0643, 2,    127.732,  147.9,    1.0644, 0, 0, 0, 0
"BUSLVMAI50", 0.20785, 1,    125.058, -152.8,    1.0422, 2,    125.265,   27.3,    1.0439, 0, 0, 0, 0
"BUSLVMAI51", 0.20785, 1,    126.689,  -32.4,    1.0557, 2,    126.705,  147.6,    1.0559, 0, 0, 0, 0
"BUSLVMAI52", 0.20785, 1,    126.818,   86.9,    1.0568, 2,    126.831,  -93.1,    1.0569, 0, 0, 0, 0
"BUSLVMAI53", 0.20785, 1,    126.797,   86.9,    1.0566, 2,    126.813,  -93.1,    1.0568, 0, 0, 0, 0
"BUSLVMAI54", 0.20785, 1,    125.984,   86.6,    1.0499, 2,        126,  -93.4,      1.05, 0, 0, 0, 0
"BUSLVMAI55", 0.20785, 1,    127.777,  -32.1,    1.0648, 2,    127.793,  147.9,    1.0649, 0, 0, 0, 0
"BUSLVMAI56", 0.20785, 1,    126.398,   86.8,    1.0533, 2,    126.411,  -93.2,    1.0534, 0, 0, 0, 0
"BUSLVMAI57", 0.20785, 1,    126.683,   86.9,    1.0557, 2,    126.698,  -93.1,    1.0558, 0, 0, 0, 0
"BUSLVMAI58", 0.20785, 1,    126.816,   86.9,    1.0568, 2,     126.83,  -93.1,    1.0569, 0, 0, 0, 0
"BUSLVMAI59", 0.20785, 1,    127.717,  -32.1,    1.0643, 2,    127.732,  147.9,    1.0644, 0, 0, 0, 0
"BUSLVMAI60", 0.20785, 1,    127.669,  -32.1,    1.0639, 2,    127.683,  147.9,     1.064, 0, 0, 0, 0
"BUSLVMAI61", 0.20785, 1,    126.308,  -32.7,    1.0526, 2,    126.326,  147.3,    1.0527, 0, 0, 0, 0
"BUSLVMAI62", 0.20785, 1,    126.784, -152.3,    1.0565, 2,    126.798,   27.7,    1.0567, 0, 0, 0, 0
"BUSLVMAI63", 0.20785, 1,    127.324,  -32.2,     1.061, 2,    127.349,  147.8,    1.0612, 0, 0, 0, 0
"BUSLVMAI64", 0.20785, 1,    126.926, -152.2,    1.0577, 2,    126.939,   27.8,    1.0578, 0, 0, 0, 0
"BUSLVMAI65", 0.20785, 1,    127.687,  -32.1,    1.0641, 2,    127.701,  147.9,    1.0642, 0, 0, 0, 0
"BUSLVMAI66", 0.20785, 1,    126.802,   86.9,    1.0567, 2,    126.816,  -93.1,    1.0568, 0, 0, 0, 0
"BUSLVMAI67", 0.20785, 1,    127.143,  -32.3,    1.0595, 2,    127.159,  147.7,    1.0597, 0, 0, 0, 0
"BUSLVMAI68", 0.20785, 1,    127.052,  -32.4,    1.0588, 2,    127.065,  147.6,    1.0589, 0, 0, 0, 0
"BUSLVMAI69", 0.20785, 1,    126.806,   86.9,    1.0567, 2,    126.819,  -93.1,    1.0568, 0, 0, 0, 0
"BUSLVMAI70", 0.20785, 1,     126.34,   86.7,    1.0528, 2,    126.364,  -93.3,     1.053, 0, 0, 0, 0
"BUSLVMAI71", 0.20785, 1,    126.901,  -32.5,    1.0575, 2,    126.915,  147.5,    1.0576, 0, 0, 0, 0
"BUSLVMAI72", 0.20785, 1,     127.56,  -32.2,     1.063, 2,    127.573,  147.8,    1.0631, 0, 0, 0, 0
"BUSLVMAI73", 0.20785, 1,    127.462,  -32.2,    1.0622, 2,    127.475,  147.8,    1.0623, 0, 0, 0, 0
"BUSLVMAI74", 0.20785, 1,    127.715,  -32.1,    1.0643, 2,    127.731,  147.9,    1.0644, 0, 0, 0, 0
"BUSLVMAI75", 0.20785, 1,    126.581, -152.4,    1.0548, 2,    126.595,   27.6,     1.055, 0, 0, 0, 0
"BUSLVMAI76", 0.20785, 1,    126.802,   86.9,    1.0567, 2,    126.815,  -93.1,    1.0568, 0, 0, 0, 0
"BUSLVMAI77", 0.20785, 1,    127.203,  -32.3,      1.06, 2,    127.217,  147.7,    1.0601, 0, 0, 0, 0
"BUSLVMAI78", 0.20785, 1,    127.546,  -32.2,    1.0629, 2,     127.56,  147.8,     1.063, 0, 0, 0, 0
"BUSLVMAI79", 0.20785, 1,     126.69,   86.9,    1.0557, 2,    126.704,  -93.1,    1.0559, 0, 0, 0, 0
"BUSLVMAI80", 0.20785, 1,     125.26,   86.2,    1.0438, 2,    125.298,  -93.8,    1.0441, 0, 0, 0, 0
"BUSLVMAI81", 0.20785, 1,    126.801,   86.9,    1.0567, 2,    126.815,  -93.1,    1.0568, 0, 0, 0, 0
"BUSLVMAI82", 0.20785, 1,    126.506,   86.8,    1.0542, 2,    126.522,  -93.2,    1.0543, 0, 0, 0, 0
"BUSLVMAI83", 0.20785, 1,    127.089,  -32.4,    1.0591, 2,    127.128,  147.6,    1.0594, 0, 0, 0, 0
"BUSLVMAI84", 0.20785, 1,    126.352,   86.8,    1.0529, 2,    126.366,  -93.2,     1.053, 0, 0, 0, 0
"BUSLVMAI85", 0.20785, 1,    126.941, -152.2,    1.0578, 2,    126.969,   27.8,    1.0581, 0, 0, 0, 0
"BUSLVMAI86", 0.20785, 1,    127.311,  -32.3,    1.0609, 2,    127.372,  147.7,    1.0614, 0, 0, 0, 0
"BUSLVMAI87", 0.20785, 1,    127.701,  -32.1,    1.0642, 2,    127.741,  147.9,    1.0645, 0, 0, 0, 0
"BUSLVMAI88", 0.20785, 1,     126.86,   86.9,    1.0572, 2,    126.873,  -93.1,    1.0573, 0, 0, 0, 0
"BUSLVMAI89", 0.20785, 1,    126.802,   86.9,    1.0567, 2,    126.815,  -93.1,    1.0568, 0, 0, 0, 0
"BUSLVMAI90", 0.20785, 1,    126.393,   86.8,    1.0533, 2,    126.409,  -93.2,    1.0534, 0, 0, 0, 0
"BUSLVMAI91", 0.20785, 1,    126.831,   86.9,    1.0569, 2,    126.847,  -93.1,    1.0571, 0, 0, 0, 0
"BUSLVMAI92", 0.20785, 1,    127.337,  -32.2,    1.0611, 2,    127.373,  147.8,    1.0614, 0, 0, 0, 0
"BUSLVMAI93", 0.20785, 1,     126.54,   86.9,    1.0545, 2,    126.556,  -93.1,    1.0546, 0, 0, 0, 0
"BUSLVMAI94", 0.20785, 1,      126.3,   86.7,    1.0525, 2,    126.314,  -93.3,    1.0526, 0, 0, 0, 0
"BUSLVMAI95", 0.20785, 1,    126.683,   86.9,    1.0557, 2,    126.698,  -93.1,    1.0558, 0, 0, 0, 0
"BUSLVMAI96", 0.20785, 1,    126.802,   86.9,    1.0567, 2,    126.816,  -93.1,    1.0568, 0, 0, 0, 0
"BUSLVMAI97", 0.20785, 1,    127.049, -152.1,    1.0587, 2,    127.064,   27.8,    1.0589, 0, 0, 0, 0
"BUSLVMAI98", 0.20785, 1,    127.049, -152.1,    1.0587, 2,    127.064,   27.8,    1.0589, 0, 0, 0, 0
"BUSLVMAI99", 0.20785, 1,    126.812,   86.9,    1.0568, 2,    126.826,  -93.1,    1.0569, 0, 0, 0, 0
"BUSLVMAI100", 0.20785, 1,    126.726,   86.9,     1.056, 2,     126.74,  -93.1,    1.0562, 0, 0, 0, 0
"BUSLVMAI101", 0.20785, 1,    126.681,   86.9,    1.0557, 2,    126.697,  -93.1,    1.0558, 0, 0, 0, 0
"BUSLVMAI102", 0.20785, 1,      126.8,   86.9,    1.0567, 2,    126.816,  -93.1,    1.0568, 0, 0, 0, 0
"BUSLVMAI103", 0.20785, 1,    126.619,   86.9,    1.0552, 2,    126.635,  -93.1,    1.0553, 0, 0, 0, 0
"BUSLVMAI104", 0.20785, 1,    126.537,   86.9,    1.0545, 2,    126.551,  -93.1,    1.0546, 0, 0, 0, 0
"BUSLVMAI105", 0.20785, 1,    126.464,   86.8,    1.0539, 2,    126.478,  -93.2,     1.054, 0, 0, 0, 0
"BUSLVMAI106", 0.20785, 1,    127.658,  -32.1,    1.0638, 2,    127.671,  147.9,    1.0639, 0, 0, 0, 0
"BUSLVMAI107", 0.20785, 1,    126.805,   86.9,    1.0567, 2,    126.819,  -93.1,    1.0568, 0, 0, 0, 0
"BUSLVMAI108", 0.20785, 1,    126.698,   86.9,    1.0558, 2,    126.712,  -93.1,    1.0559, 0, 0, 0, 0
"BUSLVMAI109", 0.20785, 1,    126.932,  -32.4,    1.0578, 2,    126.996,  147.6,    1.0583, 0, 0, 0, 0
"BUSLVMAI110", 0.20785, 1,    127.174,  -32.3,    1.0598, 2,     127.21,  147.7,    1.0601, 0, 0, 0, 0
"BUSLVMAI111", 0.20785, 1,    127.351,  -32.2,    1.0613, 2,    127.367,  147.8,    1.0614, 0, 0, 0, 0
"BUSLVMAI112", 0.20785, 1,    127.537,  -32.2,    1.0628, 2,    127.553,  147.8,    1.0629, 0, 0, 0, 0
"BUSLVMAI113", 0.20785, 1,    126.989, -152.2,    1.0582, 2,    127.004,   27.8,    1.0584, 0, 0, 0, 0
"BUSLVMAI114", 0.20785, 1,    126.101,  -32.7,    1.0508, 2,    126.116,  147.3,     1.051, 0, 0, 0, 0
"BUSLVMAI115", 0.20785, 1,    127.351,  -32.2,    1.0613, 2,    127.364,  147.8,    1.0614, 0, 0, 0, 0
"BUSLVMAI116", 0.20785, 1,    126.626,   87.0,    1.0552, 2,    126.639,  -93.0,    1.0553, 0, 0, 0, 0
"BUSLVMAI117", 0.20785, 1,    126.768,  -32.5,    1.0564, 2,    126.799,  147.5,    1.0567, 0, 0, 0, 0
"BUSLVMAI118", 0.20785, 1,    126.959,  -32.4,     1.058, 2,    126.975,  147.6,    1.0581, 0, 0, 0, 0
"BUSLVMAI119", 0.20785, 1,    126.316,   86.8,    1.0526, 2,    126.329,  -93.2,    1.0527, 0, 0, 0, 0
"BUSLVMAI120", 0.20785, 1,     127.35,  -32.2,    1.0612, 2,    127.364,  147.8,    1.0614, 0, 0, 0, 0
"BUSLVMAI121", 0.20785, 1,    127.105, -152.2,    1.0592, 2,    127.121,   27.8,    1.0593, 0, 0, 0, 0
"BUSLVMAI122", 0.20785, 1,    126.612,   87.0,    1.0551, 2,    126.628,  -93.0,    1.0552, 0, 0, 0, 0
"BUSLVMAI123", 0.20785, 1,      127.1, -152.2,    1.0592, 2,    127.114,   27.8,    1.0593, 0, 0, 0, 0
"BUSLVMAI124", 0.20785, 1,    125.734,   86.5,    1.0478, 2,    125.789,  -93.5,    1.0482, 0, 0, 0, 0
"BUSLVMAI125", 0.20785, 1,    126.041,   86.8,    1.0503, 2,     126.06,  -93.2,    1.0505, 0, 0, 0, 0
"BUSLVMAI126", 0.20785, 1,     127.11, -152.2,    1.0593, 2,    127.124,   27.8,    1.0594, 0, 0, 0, 0
"BUSLVMAI127", 0.20785, 1,    126.611,   87.0,    1.0551, 2,    126.625,  -93.0,    1.0552, 0, 0, 0, 0
"BUSLVMAI128", 0.20785, 1,    125.914, -152.7,    1.0493, 2,    125.938,   27.3,    1.0495, 0, 0, 0, 0
"BUSLVMAI129", 0.20785, 1,     127.35,  -32.2,    1.0613, 2,    127.363,  147.8,    1.0614, 0, 0, 0, 0
"BUSLVMAI130", 0.20785, 1,     127.57,  -32.1,    1.0631, 2,    127.586,  147.9,    1.0632, 0, 0, 0, 0
"BUSLVMAI131", 0.20785, 1,     126.12,  -32.6,     1.051, 2,    126.191,  147.4,    1.0516, 0, 0, 0, 0
"BUSLVMAI132", 0.20785, 1,    127.347,  -32.2,    1.0612, 2,     127.36,  147.8,    1.0613, 0, 0, 0, 0
"BUSLVMAI133", 0.20785, 1,    126.641,   86.9,    1.0553, 2,    126.659,  -93.1,    1.0555, 0, 0, 0, 0
"BUSLVMAI134", 0.20785, 1,    126.301,   86.8,    1.0525, 2,    126.318,  -93.2,    1.0527, 0, 0, 0, 0
"BUSLVMAI135", 0.20785, 1,    126.575,   86.9,    1.0548, 2,    126.591,  -93.1,    1.0549, 0, 0, 0, 0
"BUSLVMAI136", 0.20785, 1,     126.68,  -32.6,    1.0557, 2,    126.712,  147.4,    1.0559, 0, 0, 0, 0
"BUSLVMAI137", 0.20785, 1,    126.767, -152.3,    1.0564, 2,     126.78,   27.7,    1.0565, 0, 0, 0, 0
"BUSLVMAI138", 0.20785, 1,    126.838, -152.3,     1.057, 2,    126.861,   27.7,    1.0572, 0, 0, 0, 0
"BUSLVMAI139", 0.20785, 1,    126.301, -152.5,    1.0525, 2,    126.319,   27.5,    1.0527, 0, 0, 0, 0
"BUSLVMAI140", 0.20785, 1,    127.019,  -32.3,    1.0585, 2,    127.035,  147.7,    1.0586, 0, 0, 0, 0
"BUSLVMAI141", 0.20785, 1,    127.111, -152.2,    1.0593, 2,    127.125,   27.8,    1.0594, 0, 0, 0, 0
"BUSLVMAI142", 0.20785, 1,    126.656, -152.3,    1.0555, 2,     126.67,   27.6,    1.0556, 0, 0, 0, 0
"BUSLVMAI143", 0.20785, 1,    126.971, -152.2,    1.0581, 2,    126.986,   27.8,    1.0582, 0, 0, 0, 0
"BUSLVMAI144", 0.20785, 1,    126.614,   87.0,    1.0551, 2,     126.63,  -93.0,    1.0552, 0, 0, 0, 0
"BUSLVMAI145", 0.20785, 1,    127.505,  -32.2,    1.0625, 2,    127.521,  147.8,    1.0627, 0, 0, 0, 0
"BUSLVMAI146", 0.20785, 1,    127.088, -152.2,    1.0591, 2,    127.102,   27.8,    1.0592, 0, 0, 0, 0
"BUSLVMAI147", 0.20785, 1,    126.464,  -32.6,    1.0539, 2,    126.481,  147.4,     1.054, 0, 0, 0, 0
"BUSLVMAI148", 0.20785, 1,    126.549,   86.9,    1.0546, 2,    126.564,  -93.1,    1.0547, 0, 0, 0, 0
"BUSLVMAI149", 0.20785, 1,    126.668, -152.4,    1.0556, 2,    126.681,   27.6,    1.0557, 0, 0, 0, 0
"BUSLVMAI150", 0.20785, 1,    126.628,  -32.6,    1.0552, 2,    126.655,  147.4,    1.0555, 0, 0, 0, 0
"BUSLVMAI151", 0.20785, 1,    126.365, -152.4,     1.053, 2,    126.378,   27.6,    1.0531, 0, 0, 0, 0
"BUSLVMAI152", 0.20785, 1,    127.339,  -32.2,    1.0612, 2,    127.355,  147.8,    1.0613, 0, 0, 0, 0
"BUSLVMAI153", 0.20785, 1,    125.597,   86.6,    1.0466, 2,    125.612,  -93.4,    1.0468, 0, 0, 0, 0
"BUSLVMAI154", 0.20785, 1,    126.633,   86.9,    1.0553, 2,    126.649,  -93.1,    1.0554, 0, 0, 0, 0
"BUSLVMAI155", 0.20785, 1,    126.818,  -32.5,    1.0568, 2,    126.832,  147.5,    1.0569, 0, 0, 0, 0
"BUSLVMAI156", 0.20785, 1,    127.353,  -32.2,    1.0613, 2,    127.366,  147.8,    1.0614, 0, 0, 0, 0
"BUSLVMAI157", 0.20785, 1,     126.34,  -32.6,    1.0528, 2,    126.356,  147.4,     1.053, 0, 0, 0, 0
"BUSLVMAI158", 0.20785, 1,     127.03, -152.2,    1.0586, 2,    127.043,   27.8,    1.0587, 0, 0, 0, 0
"BUSLVMAI159", 0.20785, 1,    127.012, -152.2,    1.0584, 2,    127.025,   27.8,    1.0585, 0, 0, 0, 0
"BUSLVMAI160", 0.20785, 1,    127.147,  -32.3,    1.0596, 2,    127.166,  147.7,    1.0597, 0, 0, 0, 0
"BUSLVMAI161", 0.20785, 1,    126.953,  -32.4,    1.0579, 2,    126.978,  147.6,    1.0582, 0, 0, 0, 0
"BUSLVMAI162", 0.20785, 1,    127.158,  -32.3,    1.0596, 2,    127.174,  147.7,    1.0598, 0, 0, 0, 0
"BUSLVMAI163", 0.20785, 1,    127.339,  -32.2,    1.0612, 2,    127.354,  147.8,    1.0613, 0, 0, 0, 0
"BUSLVMAI164", 0.20785, 1,    127.623,  -32.1,    1.0635, 2,    127.636,  147.9,    1.0636, 0, 0, 0, 0
"BUSLVMAI165", 0.20785, 1,    126.677,  -32.4,    1.0556, 2,    126.716,  147.5,     1.056, 0, 0, 0, 0
"BUSLVMAI166", 0.20785, 1,    126.904,  -32.5,    1.0575, 2,    126.933,  147.5,    1.0578, 0, 0, 0, 0
"BUSLVMAI167", 0.20785, 1,    126.102,   86.7,    1.0508, 2,    126.134,  -93.3,    1.0511, 0, 0, 0, 0
"BUSLVMAI168", 0.20785, 1,    126.344,   86.8,    1.0529, 2,    126.358,  -93.2,     1.053, 0, 0, 0, 0
"BUSLVMAI169", 0.20785, 1,    125.175,  -32.7,    1.0431, 2,    125.193,  147.3,    1.0433, 0, 0, 0, 0
"BUSLVMAI170", 0.20785, 1,    127.336,  -32.2,    1.0611, 2,     127.35,  147.7,    1.0612, 0, 0, 0, 0
"BUSLVMAI171", 0.20785, 1,    126.759,  -32.4,    1.0563, 2,    126.871,  147.6,    1.0573, 0, 0, 0, 0
"BUSLVMAI172", 0.20785, 1,    126.124,   86.7,     1.051, 2,    126.139,  -93.3,    1.0512, 0, 0, 0, 0
"BUSLVMAI173", 0.20785, 1,    126.609,   87.0,    1.0551, 2,    126.625,  -93.0,    1.0552, 0, 0, 0, 0
"BUSLVMAI174", 0.20785, 1,    126.984,  -32.4,    1.0582, 2,    127.008,  147.6,    1.0584, 0, 0, 0, 0
"BUSLVMAI175", 0.20785, 1,    126.322,  -32.7,    1.0527, 2,    126.336,  147.3,    1.0528, 0, 0, 0, 0
"BUSLVMAI176", 0.20785, 1,    126.519,   86.9,    1.0543, 2,    126.532,  -93.1,    1.0544, 0, 0, 0, 0
"BUSLVMAI177", 0.20785, 1,    126.556,   86.9,    1.0546, 2,    126.569,  -93.1,    1.0547, 0, 0, 0, 0
"BUSLVMAI178", 0.20785, 1,    127.022, -152.2,    1.0585, 2,    127.035,   27.8,    1.0586, 0, 0, 0, 0
"BUSLVMAI179", 0.20785, 1,    126.691, -152.4,    1.0558, 2,    126.704,   27.6,    1.0559, 0, 0, 0, 0
"BUSLVMAI180", 0.20785, 1,    127.353,  -32.2,    1.0613, 2,    127.366,  147.8,    1.0614, 0, 0, 0, 0
"BUSLVMAI181", 0.20785, 1,    127.333,  -32.3,    1.0611, 2,    127.347,  147.7,    1.0612, 0, 0, 0, 0
"BUSLVMAI182", 0.20785, 1,    126.237,  -32.7,     1.052, 2,    126.371,  147.3,    1.0531, 0, 0, 0, 0
"BUSLVMAI183", 0.20785, 1,    126.376,   86.8,    1.0531, 2,     126.39,  -93.2,    1.0532, 0, 0, 0, 0
"BUSLVMAI184", 0.20785, 1,    127.582,  -32.1,    1.0632, 2,    127.595,  147.9,    1.0633, 0, 0, 0, 0
"BUSLVMAI185", 0.20785, 1,    126.524, -152.4,    1.0544, 2,    126.537,   27.6,    1.0545, 0, 0, 0, 0
"BUSLVMAI186", 0.20785, 1,    126.637,   86.9,    1.0553, 2,    126.653,  -93.1,    1.0554, 0, 0, 0, 0
"BUSLVMAI187", 0.20785, 1,    126.434,   86.9,    1.0536, 2,    126.447,  -93.1,    1.0537, 0, 0, 0, 0
"BUSLVMAI188", 0.20785, 1,    127.032, -152.2,    1.0586, 2,    127.048,   27.8,    1.0587, 0, 0, 0, 0
"BUSLVMAI189", 0.20785, 1,    127.348,  -32.2,    1.0612, 2,    127.364,  147.8,    1.0614, 0, 0, 0, 0
"BUSLVMAI190", 0.20785, 1,    127.019, -152.2,    1.0585, 2,    127.035,   27.8,    1.0586, 0, 0, 0, 0
"BUSLVMAI191", 0.20785, 1,    126.633,   86.9,    1.0553, 2,    126.649,  -93.1,    1.0554, 0, 0, 0, 0
"BUSLVMAI192", 0.20785, 1,    127.329,  -32.2,    1.0611, 2,    127.345,  147.7,    1.0612, 0, 0, 0, 0
"BUSLVMAI193", 0.20785, 1,     127.34,  -32.2,    1.0612, 2,    127.356,  147.8,    1.0613, 0, 0, 0, 0
"BUSLVMAI194", 0.20785, 1,    126.501,   86.9,    1.0542, 2,    126.517,  -93.1,    1.0543, 0, 0, 0, 0
"BUSLVMAI195", 0.20785, 1,    126.635,   86.9,    1.0553, 2,    126.651,  -93.1,    1.0554, 0, 0, 0, 0
"BUSLVMAI196", 0.20785, 1,    126.987, -152.2,    1.0582, 2,    127.002,   27.8,    1.0584, 0, 0, 0, 0
"BUSLVMAI197", 0.20785, 1,     126.69, -152.3,    1.0558, 2,    126.704,   27.7,    1.0559, 0, 0, 0, 0
"BUSLVMAI198", 0.20785, 1,    126.986, -152.2,    1.0582, 2,    127.001,   27.8,    1.0583, 0, 0, 0, 0
"BUSLVMAI199", 0.20785, 1,    126.987, -152.2,    1.0582, 2,    127.002,   27.8,    1.0584, 0, 0, 0, 0
"BUSLVMAI200", 0.20785, 1,     127.33,  -32.2,    1.0611, 2,    127.345,  147.7,    1.0612, 0, 0, 0, 0
...
